*Heading
** Job name: SolidSingle-SimpleShear Model name: SolidSingle-SimpleShear
** Generated by: Abaqus/CAE 2022
*Preprint, echo=NO, model=NO, history=NO, contact=NO
**
** PARTS
**
*Part, name=compare
*Node
      1,          10.,          10.,          10.
      2,          10.,           0.,          10.
      3,          10.,          10.,           0.
      4,          10.,           0.,           0.
      5,           0.,          10.,          10.
      6,           0.,           0.,          10.
      7,           0.,          10.,           0.
      8,           0.,           0.,           0.
*Element, type=C3D8R
1, 5, 6, 8, 7, 1, 2, 4, 3
*Nset, nset=Set-4, generate
 1,  8,  1
*Elset, elset=Set-4
 1,
** Section: compare
*Solid Section, elset=Set-4, material=elastic-plastic
,
*End Part
**  
*Part, name=vumat
*Node
      1,          10.,          10.,          10.
      2,          10.,           0.,          10.
      3,          10.,          10.,           0.
      4,          10.,           0.,           0.
      5,           0.,          10.,          10.
      6,           0.,           0.,          10.
      7,           0.,          10.,           0.
      8,           0.,           0.,           0.
*Element, type=C3D8R
1, 5, 6, 8, 7, 1, 2, 4, 3
*Nset, nset=Set-4, generate
 1,  8,  1
*Elset, elset=Set-4
 1,
** Section: vumat
*Solid Section, elset=Set-4, material=VUMAT
,
*End Part
**  
**
** ASSEMBLY
**
*Assembly, name=Assembly
**  
*Instance, name=vumat, part=vumat
*End Instance
**  
*Instance, name=compare, part=compare
         11.,           0.,           0.
*End Instance
**  
*Nset, nset=Set-3, instance=vumat
 3, 4, 7, 8
*Nset, nset=Set-3, instance=compare
 3, 4, 7, 8
*Elset, elset=Set-3, instance=vumat
 1,
*Elset, elset=Set-3, instance=compare
 1,
*Nset, nset=Set-4, instance=vumat
 1, 2, 5, 6
*Nset, nset=Set-4, instance=compare
 1, 2, 5, 6
*Elset, elset=Set-4, instance=vumat
 1,
*Elset, elset=Set-4, instance=compare
 1,
*Nset, nset=Set-5, instance=vumat, generate
 1,  4,  1
*Nset, nset=Set-5, instance=compare, generate
 1,  4,  1
*Elset, elset=Set-5, instance=vumat
 1,
*Elset, elset=Set-5, instance=compare
 1,
*Nset, nset=Set-6, instance=vumat, generate
 5,  8,  1
*Nset, nset=Set-6, instance=compare, generate
 5,  8,  1
*Elset, elset=Set-6, instance=vumat
 1,
*Elset, elset=Set-6, instance=compare
 1,
*Nset, nset=Set-7, instance=vumat, generate
 1,  7,  2
*Nset, nset=Set-7, instance=compare, generate
 1,  7,  2
*Elset, elset=Set-7, instance=vumat
 1,
*Elset, elset=Set-7, instance=compare
 1,
*Nset, nset=Set-8, instance=vumat, generate
 2,  8,  2
*Nset, nset=Set-8, instance=compare, generate
 2,  8,  2
*Elset, elset=Set-8, instance=vumat
 1,
*Elset, elset=Set-8, instance=compare
 1,
*Nset, nset=Set-9, instance=vumat, generate
 2,  8,  2
*Nset, nset=Set-9, instance=compare, generate
 2,  8,  2
*Elset, elset=Set-9, instance=vumat
 1,
*Elset, elset=Set-9, instance=compare
 1,
*Nset, nset=Set-10, instance=vumat, generate
 1,  7,  2
*Nset, nset=Set-10, instance=compare, generate
 1,  7,  2
*Elset, elset=Set-10, instance=vumat
 1,
*Elset, elset=Set-10, instance=compare
 1,
*Nset, nset=Set-11, instance=vumat, generate
 1,  7,  2
*Nset, nset=Set-11, instance=compare, generate
 1,  7,  2
*Elset, elset=Set-11, instance=vumat
 1,
*Elset, elset=Set-11, instance=compare
 1,
*Nset, nset=Set-12, instance=vumat, generate
 1,  7,  2
*Nset, nset=Set-12, instance=compare, generate
 1,  7,  2
*Elset, elset=Set-12, instance=vumat
 1,
*Elset, elset=Set-12, instance=compare
 1,
*Nset, nset=Set-13, instance=vumat, generate
 5,  8,  1
*Nset, nset=Set-13, instance=compare, generate
 5,  8,  1
*Elset, elset=Set-13, instance=vumat
 1,
*Elset, elset=Set-13, instance=compare
 1,
*Nset, nset=Set-14, instance=vumat, generate
 1,  8,  1
*Nset, nset=Set-14, instance=compare, generate
 1,  8,  1
*Elset, elset=Set-14, instance=vumat
 1,
*Elset, elset=Set-14, instance=compare
 1,
*Nset, nset=Set-15, instance=vumat, generate
 1,  8,  1
*Nset, nset=Set-15, instance=compare, generate
 1,  8,  1
*Elset, elset=Set-15, instance=vumat
 1,
*Elset, elset=Set-15, instance=compare
 1,
*End Assembly
*Amplitude, name=Amp-1, time=TOTAL TIME
             0.,              0.,           0.001,              1.,             10.,              1.
** 
** MATERIALS
** 
*Material, name=VUMAT
*density
7.0e-9
*user material, CONSTANTS=17
**      E,     nu,  sigma0,  Q1,   C1,     Q2,      C2,    Q3,
210000.0,    0.3,  290.7,   129.2, 168.6, 209.8,   10.68,  455.3,      
**       C3,   n (hershey),  cp,      betaTQ,  T0,      Tm,       m,    pdot0,
         0.805,  2.,            452e6,   0.9,     293.0,   1800.0,   1000.0,  5e-5,
**       c
         0.0
*depvar
2
**1, p, "Euivalent plastic strain" 
**2, T, "Temperature"
**
    *Material, name=elastic-plastic
*Density
 7e-09,
*Elastic
210000., 0.3
*Inelastic Heat Fraction
         0.9,
*Plastic
   290.7,         0.
 313.362,   0.001001
 332.884,   0.002002
  349.75,   0.003003
  364.37,   0.004004
 377.088, 0.00500501
 388.197, 0.00600601
 397.943, 0.00700701
 406.534, 0.00800801
 414.147, 0.00900901
 420.931,    0.01001
  427.01,   0.011011
 432.492,   0.012012
 437.465,   0.013013
 442.006,   0.014014
 446.179,   0.015015
 450.037,   0.016016
 453.627,   0.017017
 456.988,   0.018018
 460.152,   0.019019
** ... 980 like lines cut
*Specific Heat
 4.52e+08,
** 
** BOUNDARY CONDITIONS
** 
** Name: constrained-sides Type: Symmetry/Antisymmetry/Encastre
*Boundary
Set-15, XSYMM
** Name: fixed Type: Displacement/Rotation
*Boundary
Set-9, 2, 2
Set-9, 3, 3
** Name: fixedYtop Type: Displacement/Rotation
*Boundary
Set-10, 2, 2
** ----------------------------------------------------------------
** 
** STEP: load
** 
*Step, name=load, nlgeom=YES
*Dynamic, Explicit, adiabatic
, 0.01
*Bulk Viscosity
0.06, 1.2
** 
** BOUNDARY CONDITIONS
** 
** Name: velTop Type: Velocity/Angular velocity
*Boundary, amplitude=Amp-1, type=VELOCITY
Set-12, 3, 3, 600.
** 
** OUTPUT REQUESTS
** 
*Restart, write, number interval=1, time marks=NO
** 
** FIELD OUTPUT: F-Output-1
** 
*Output, field, number interval=40
*Node Output
A, RF, U, V
*Element Output, directions=YES
EVF, LE, PE, PEEQ, PEEQVAVG, PEVAVG, S, SDV, STATUS, SVAVG
*Contact Output
CSTRESS, 
** 
** HISTORY OUTPUT: H-Output-1
** 
*Output, history, variable=PRESELECT
*End Step
