*Heading
** Job name: SolidPatch-BiTens Model name: SolidPatch-BiTens
** Generated by: Abaqus/CAE 2022
*Preprint, echo=NO, model=NO, history=NO, contact=NO
**
** PARTS
**
*Part, name=compare
*Node
      1,          10.,          10.,          10.
      2,          10.,   6.66666651,          10.
      3,          10.,   3.33333325,          10.
      4,          10.,           0.,          10.
      5,          10.,          10.,   6.66666651
      6,          10.,   6.66666651,   6.66666651
      7,          10.,   3.33333325,   6.66666651
      8,          10.,           0.,   6.66666651
      9,          10.,          10.,   3.33333325
     10,          10.,   6.66666651,   3.33333325
     11,          10.,   3.33333325,   3.33333325
     12,          10.,           0.,   3.33333325
     13,          10.,          10.,           0.
     14,          10.,   6.66666651,           0.
     15,          10.,   3.33333325,           0.
     16,          10.,           0.,           0.
     17,   6.66666651,          10.,          10.
     18,   6.66666651,   6.66666651,          10.
     19,   6.66666651,   3.33333325,          10.
     20,   6.66666651,           0.,          10.
** ... 44 like lines cut
*Element, type=C3D8R
 1, 17, 18, 22, 21,  1,  2,  6,  5
 2, 18, 19, 23, 22,  2,  3,  7,  6
 3, 19, 20, 24, 23,  3,  4,  8,  7
 4, 21, 22, 26, 25,  5,  6, 10,  9
 5, 22, 23, 27, 26,  6,  7, 11, 10
 6, 23, 24, 28, 27,  7,  8, 12, 11
 7, 25, 26, 30, 29,  9, 10, 14, 13
 8, 26, 27, 31, 30, 10, 11, 15, 14
 9, 27, 28, 32, 31, 11, 12, 16, 15
10, 33, 34, 38, 37, 17, 18, 22, 21
11, 34, 35, 39, 38, 18, 19, 23, 22
12, 35, 36, 40, 39, 19, 20, 24, 23
13, 37, 38, 42, 41, 21, 22, 26, 25
14, 38, 39, 43, 42, 22, 23, 27, 26
15, 39, 40, 44, 43, 23, 24, 28, 27
16, 41, 42, 46, 45, 25, 26, 30, 29
17, 42, 43, 47, 46, 26, 27, 31, 30
18, 43, 44, 48, 47, 27, 28, 32, 31
19, 49, 50, 54, 53, 33, 34, 38, 37
20, 50, 51, 55, 54, 34, 35, 39, 38
** ... 7 like lines cut
*Nset, nset=Set-4, generate
  1,  64,   1
*Elset, elset=Set-4, generate
  1,  27,   1
** Section: compare
*Solid Section, elset=Set-4, material=elastic-plastic
,
*End Part
**  
*Part, name=vumat
*Node
      1,          10.,          10.,          10.
      2,          10.,   6.66666651,          10.
      3,          10.,   3.33333325,          10.
      4,          10.,           0.,          10.
      5,          10.,          10.,   6.66666651
      6,          10.,   6.66666651,   6.66666651
      7,          10.,   3.33333325,   6.66666651
      8,          10.,           0.,   6.66666651
      9,          10.,          10.,   3.33333325
     10,          10.,   6.66666651,   3.33333325
     11,          10.,   3.33333325,   3.33333325
     12,          10.,           0.,   3.33333325
     13,          10.,          10.,           0.
     14,          10.,   6.66666651,           0.
     15,          10.,   3.33333325,           0.
     16,          10.,           0.,           0.
     17,   6.66666651,          10.,          10.
     18,   6.66666651,   6.66666651,          10.
     19,   6.66666651,   3.33333325,          10.
     20,   6.66666651,           0.,          10.
** ... 44 like lines cut
*Element, type=C3D8R
 1, 17, 18, 22, 21,  1,  2,  6,  5
 2, 18, 19, 23, 22,  2,  3,  7,  6
 3, 19, 20, 24, 23,  3,  4,  8,  7
 4, 21, 22, 26, 25,  5,  6, 10,  9
 5, 22, 23, 27, 26,  6,  7, 11, 10
 6, 23, 24, 28, 27,  7,  8, 12, 11
 7, 25, 26, 30, 29,  9, 10, 14, 13
 8, 26, 27, 31, 30, 10, 11, 15, 14
 9, 27, 28, 32, 31, 11, 12, 16, 15
10, 33, 34, 38, 37, 17, 18, 22, 21
11, 34, 35, 39, 38, 18, 19, 23, 22
12, 35, 36, 40, 39, 19, 20, 24, 23
13, 37, 38, 42, 41, 21, 22, 26, 25
14, 38, 39, 43, 42, 22, 23, 27, 26
15, 39, 40, 44, 43, 23, 24, 28, 27
16, 41, 42, 46, 45, 25, 26, 30, 29
17, 42, 43, 47, 46, 26, 27, 31, 30
18, 43, 44, 48, 47, 27, 28, 32, 31
19, 49, 50, 54, 53, 33, 34, 38, 37
20, 50, 51, 55, 54, 34, 35, 39, 38
** ... 7 like lines cut
*Nset, nset=Set-4, generate
  1,  64,   1
*Elset, elset=Set-4, generate
  1,  27,   1
** Section: vumat
*Solid Section, elset=Set-4, material=VUMAT
,
*End Part
**  
**
** ASSEMBLY
**
*Assembly, name=Assembly
**  
*Instance, name=vumat, part=vumat
*End Instance
**  
*Instance, name=compare, part=compare
         11.,           0.,           0.
*End Instance
**  
*Nset, nset=Set-3, instance=vumat
 13, 14, 15, 16, 29, 30, 31, 32, 45, 46, 47, 48, 61, 62, 63, 64
*Nset, nset=Set-3, instance=compare
 13, 14, 15, 16, 29, 30, 31, 32, 45, 46, 47, 48, 61, 62, 63, 64
*Elset, elset=Set-3, instance=vumat
  7,  8,  9, 16, 17, 18, 25, 26, 27
*Elset, elset=Set-3, instance=compare
  7,  8,  9, 16, 17, 18, 25, 26, 27
*Nset, nset=Set-4, instance=vumat
  1,  2,  3,  4, 17, 18, 19, 20, 33, 34, 35, 36, 49, 50, 51, 52
*Nset, nset=Set-4, instance=compare
  1,  2,  3,  4, 17, 18, 19, 20, 33, 34, 35, 36, 49, 50, 51, 52
*Elset, elset=Set-4, instance=vumat
  1,  2,  3, 10, 11, 12, 19, 20, 21
*Elset, elset=Set-4, instance=compare
  1,  2,  3, 10, 11, 12, 19, 20, 21
*Nset, nset=Set-5, instance=vumat, generate
  1,  16,   1
*Nset, nset=Set-5, instance=compare, generate
  1,  16,   1
*Elset, elset=Set-5, instance=vumat, generate
 1,  9,  1
*Elset, elset=Set-5, instance=compare, generate
 1,  9,  1
*Nset, nset=Set-6, instance=vumat, generate
 49,  64,   1
*Nset, nset=Set-6, instance=compare, generate
 49,  64,   1
*Elset, elset=Set-6, instance=vumat, generate
 19,  27,   1
*Elset, elset=Set-6, instance=compare, generate
 19,  27,   1
*Nset, nset=Set-7, instance=vumat, generate
  1,  61,   4
*Nset, nset=Set-7, instance=compare, generate
  1,  61,   4
*Elset, elset=Set-7, instance=vumat, generate
  1,  25,   3
*Elset, elset=Set-7, instance=compare, generate
  1,  25,   3
*Nset, nset=Set-8, instance=vumat, generate
  4,  64,   4
*Nset, nset=Set-8, instance=compare, generate
  4,  64,   4
*Elset, elset=Set-8, instance=vumat, generate
  3,  27,   3
*Elset, elset=Set-8, instance=compare, generate
  3,  27,   3
*Nset, nset=Set-9, instance=vumat
 13, 14, 15, 16, 29, 30, 31, 32, 45, 46, 47, 48, 61, 62, 63, 64
*Nset, nset=Set-9, instance=compare
 13, 14, 15, 16, 29, 30, 31, 32, 45, 46, 47, 48, 61, 62, 63, 64
*Elset, elset=Set-9, instance=vumat
  7,  8,  9, 16, 17, 18, 25, 26, 27
*Elset, elset=Set-9, instance=compare
  7,  8,  9, 16, 17, 18, 25, 26, 27
*End Assembly
*Amplitude, name=Amp-1, time=TOTAL TIME
             0.,              0.,           0.001,              1.,             10.,              1.
** 
** MATERIALS
** 
*Material, name=VUMAT

*density
7.0e-9
*user material, CONSTANTS=17
**      E,     nu,  sigma0,  Q1,   C1,     Q2,      C2,    Q3,
210000.0,    0.3,  290.7,   129.2, 168.6, 209.8,   10.68,  455.3,      
**       C3,   n (hershey),  cp,      betaTQ,  T0,      Tm,       m,    pdot0,
         0.805,  10.,            452e6,   0.9,     293.0,   1800.0,   1000.0,  5e-5,
**       c
         0.0
*depvar
2
**1, p, "Euivalent plastic strain" 
**2, T, "Temperature"
*TRANSVERSE SHEAR 
**Calculated as 5/6*G*t
6578.947,6578.947,0.0
    *Material, name=elastic-plastic
*Density
 7e-09,
*Elastic
210000., 0.3
*Inelastic Heat Fraction
         0.9,
*Plastic
   290.7,         0.
 313.348, 0.00100033
  332.86, 0.00200067
 349.719,   0.003001
 364.333, 0.00400133
 377.048, 0.00500167
 388.155,   0.006002
   397.9, 0.00700233
 406.491, 0.00800267
 414.104,   0.009003
 420.888,  0.0100033
 426.968,  0.0110037
  432.45,   0.012004
 437.424,  0.0130043
 441.965,  0.0140047
 446.138,   0.015005
 449.997,  0.0160053
 453.588,  0.0170057
 456.949,   0.018006
 460.113,  0.0190063
** ... 2980 like lines cut
*Specific Heat
 4.52e+08,
** ----------------------------------------------------------------
** 
** STEP: load
** 
*Step, name=load, nlgeom=YES
*Dynamic, Explicit, adiabatic
, 0.01
*Bulk Viscosity
0.06, 1.2
** 
** BOUNDARY CONDITIONS
** 
** Name: symmetry-bottom Type: Symmetry/Antisymmetry/Encastre
*Boundary
Set-9, ZSYMM
** Name: velNegY Type: Velocity/Angular velocity
*Boundary, amplitude=Amp-1, type=VELOCITY
Set-8, 2, 2, -150.
** Name: velNegx Type: Velocity/Angular velocity
*Boundary, amplitude=Amp-1, type=VELOCITY
Set-6, 1, 1, -150.
** Name: velPosY Type: Velocity/Angular velocity
*Boundary, amplitude=Amp-1, type=VELOCITY
Set-7, 2, 2, 150.
** Name: velXpos Type: Velocity/Angular velocity
*Boundary, amplitude=Amp-1, type=VELOCITY
Set-5, 1, 1, 150.
** 
** OUTPUT REQUESTS
** 
*Restart, write, number interval=1, time marks=NO
** 
** FIELD OUTPUT: F-Output-1
** 
*Output, field, number interval=40
*Node Output
A, RF, U, V
*Element Output, directions=YES
EVF, LE, PE, PEEQ, PEEQVAVG, PEVAVG, S, SDV, STATUS, SVAVG
*Contact Output
CSTRESS, 
** 
** HISTORY OUTPUT: H-Output-1
** 
*Output, history, variable=PRESELECT
*End Step
